Input Parameters:
   integrator                     = md
   tinit                          = 0
   dt                             = 0.001
   nsteps                         = 20000
   init-step                      = 0
   simulation-part                = 1
   comm-mode                      = Linear
   nstcomm                        = 100
   bd-fric                        = 0
   ld-seed                        = -1450366527
   emtol                          = 10
   emstep                         = 0.01
   niter                          = 20
   fcstep                         = 0
   nstcgsteep                     = 1000
   nbfgscorr                      = 10
   rtpi                           = 0.05
   nstxout                        = 10000
   nstvout                        = 0
   nstfout                        = 0
   nstlog                         = 10000
   nstcalcenergy                  = 100
   nstenergy                      = 10000
   nstxout-compressed             = 0
   compressed-x-precision         = 1000
   cutoff-scheme                  = Verlet
   nstlist                        = 10
   ns-type                        = Grid
   pbc                            = xyz
   periodic-molecules             = false
   verlet-buffer-tolerance        = 0.001
   rlist                          = 0.95
   coulombtype                    = PME
   coulomb-modifier               = Potential-shift
   rcoulomb-switch                = 0
   rcoulomb                       = 0.95
   epsilon-r                      = 1
   epsilon-rf                     = inf
   vdw-type                       = Cut-off
   vdw-modifier                   = Potential-shift
   rvdw-switch                    = 0
   rvdw                           = 0.95
   DispCorr                       = EnerPres
   table-extension                = 1
   fourierspacing                 = 0.15
   fourier-nx                     = 84
   fourier-ny                     = 20
   fourier-nz                     = 20
   pme-order                      = 4
   ewald-rtol                     = 1e-05
   ewald-rtol-lj                  = 0.001
   lj-pme-comb-rule               = Geometric
   ewald-geometry                 = 0
   epsilon-surface                = 0
   tcoupl                         = Berendsen
   nsttcouple                     = 10
   nh-chain-length                = 0
   print-nose-hoover-chain-variables = false
   pcoupl                         = Berendsen
   pcoupltype                     = Isotropic
   nstpcouple                     = 10
   tau-p                          = 1
   compressibility (3x3):
      compressibility[    0]={ 1.00000e-06,  0.00000e+00,  0.00000e+00}
      compressibility[    1]={ 0.00000e+00,  1.00000e-06,  0.00000e+00}
      compressibility[    2]={ 0.00000e+00,  0.00000e+00,  1.00000e-06}
   ref-p (3x3):
      ref-p[    0]={ 3.00000e+02,  0.00000e+00,  0.00000e+00}
      ref-p[    1]={ 0.00000e+00,  3.00000e+02,  0.00000e+00}
      ref-p[    2]={ 0.00000e+00,  0.00000e+00,  3.00000e+02}
   refcoord-scaling               = No
   posres-com (3):
      posres-com[0]= 0.00000e+00
      posres-com[1]= 0.00000e+00
      posres-com[2]= 0.00000e+00
   posres-comB (3):
      posres-comB[0]= 0.00000e+00
      posres-comB[1]= 0.00000e+00
      posres-comB[2]= 0.00000e+00
   QMMM                           = false
   QMconstraints                  = 0
   QMMMscheme                     = 0
   MMChargeScaleFactor            = 1
qm-opts:
   ngQM                           = 0
   constraint-algorithm           = Lincs
   continuation                   = false
   Shake-SOR                      = false
   shake-tol                      = 0.0001
   lincs-order                    = 4
   lincs-iter                     = 1
   lincs-warnangle                = 30
   nwall                          = 0
   wall-type                      = 9-3
   wall-r-linpot                  = -1
   wall-atomtype[0]               = -1
   wall-atomtype[1]               = -1
   wall-density[0]                = 0
   wall-density[1]                = 0
   wall-ewald-zfac                = 3
   pull                           = false
   awh                            = false
   rotation                       = false
   interactiveMD                  = false
   disre                          = No
   disre-weighting                = Conservative
   disre-mixed                    = false
   dr-fc                          = 1000
   dr-tau                         = 0
   nstdisreout                    = 100
   orire-fc                       = 0
   orire-tau                      = 0
   nstorireout                    = 100
   free-energy                    = no
   cos-acceleration               = 0
   deform (3x3):
      deform[    0]={ 0.00000e+00,  0.00000e+00,  0.00000e+00}
      deform[    1]={ 0.00000e+00,  0.00000e+00,  0.00000e+00}
      deform[    2]={ 0.00000e+00,  0.00000e+00,  0.00000e+00}
   simulated-tempering            = false
   swapcoords                     = no
   userint1                       = 0
   userint2                       = 0
   userint3                       = 0
   userint4                       = 0
   userreal1                      = 0
   userreal2                      = 0
   userreal3                      = 0
   userreal4                      = 0
   applied-forces:
     electric-field:
       x:
         E0                       = 0
         omega                    = 0
         t0                       = 0
         sigma                    = 0
       y:
         E0                       = 0
         omega                    = 0
         t0                       = 0
         sigma                    = 0
       z:
         E0                       = 0
         omega                    = 0
         t0                       = 0
         sigma                    = 0
grpopts:
   nrdf:       13585
   ref-t:         200
   tau-t:         0.1
annealing:          No
annealing-npoints:           0
   acc:	           0           0           0
   nfreeze:           N           N           N
   energygrp-flags[  0]: 0

Changing rlist from 0.95 to 0.951 for non-bonded 4x4 atom kernels

Changing nstlist from 10 to 50, rlist from 0.951 to 1.021

Initializing Domain Decomposition on 16 ranks
Dynamic load balancing: locked
The combination of rlist and box size prohibits the use of update groups
Minimum cell size due to atom displacement: 0.311 nm
Initial maximum distances in bonded interactions:
    two-body bonded interactions: 0.199 nm, Exclusion, atoms 7561 7564
  multi-body bonded interactions: 0.199 nm, Angle, atoms 7561 7564
Minimum cell size due to bonded interactions: 0.219 nm
Maximum distance for 5 constraints, at 120 deg. angles, all-trans: 0.218 nm
Estimated maximum distance required for P-LINCS: 0.218 nm
Using 0 separate PME ranks, as there are too few total
 ranks for efficient splitting
Scaling the initial minimum size with 1/0.8 (option -dds) = 1.25
Optimizing the DD grid for 16 cells with a minimum initial size of 0.389 nm
The maximum allowed number of cells is: X 32 Y 6 Z 6
Domain decomposition grid 16 x 1 x 1, separate PME ranks 0
PME domain decomposition: 16 x 1 x 1
Domain decomposition rank 0, coordinates 0 0 0

The initial number of communication pulses is: X 2
The initial domain decomposition cell size is: X 0.78 nm

The maximum allowed distance for atoms involved in interactions is:
                 non-bonded interactions           1.021 nm
(the following are initial values, they could change due to box deformation)
            two-body bonded interactions  (-rdd)   1.021 nm
          multi-body bonded interactions  (-rdd)   0.784 nm
              virtual site constructions  (-rcon)  0.784 nm
  atoms separated by up to 5 constraints  (-rcon)  0.784 nm

When dynamic load balancing gets turned on, these settings will change to:
The maximum number of communication pulses is: X 2
The minimum size for domain decomposition cells is 0.511 nm
The requested allowed shrink of DD cells (option -dds) is: 0.80
The allowed shrink of domain decomposition cells is: X 0.65
The maximum allowed distance for atoms involved in interactions is:
                 non-bonded interactions           1.021 nm
            two-body bonded interactions  (-rdd)   1.021 nm
          multi-body bonded interactions  (-rdd)   0.511 nm
              virtual site constructions  (-rcon)  0.511 nm
  atoms separated by up to 5 constraints  (-rcon)  0.511 nm

Using 16 MPI processes
Using 1 OpenMP thread per MPI process

Non-default thread affinity set probably by the OpenMP library,
disabling internal thread affinity
System total charge: 0.000
Will do PME sum in reciprocal space for electrostatic interactions.

Using a Gaussian width (1/beta) of 0.304154 nm for Ewald
Potential shift: LJ r^-12: -1.851e+00 r^-6: -1.360e+00, Ewald -1.053e-05
Initialized non-bonded Ewald correction tables, spacing: 9.09e-04 size: 1046

Long Range LJ corr.: <C6> 2.0976e-04
Generated table with 1010 data points for Ewald.
Tabscale = 500 points/nm
Generated table with 1010 data points for LJ6.
Tabscale = 500 points/nm
Generated table with 1010 data points for LJ12.
Tabscale = 500 points/nm

Using SIMD 4x4 nonbonded short-range kernels

Using a dual 4x4 pair-list setup updated with dynamic pruning:
  outer list: updated every 50 steps, buffer 0.071 nm, rlist 1.021 nm
  inner list: updated every 10 steps, buffer 0.001 nm, rlist 0.951 nm
At tolerance 0.001 kJ/mol/ps per atom, equivalent classical 1x1 list would be:
  outer list: updated every 50 steps, buffer 0.137 nm, rlist 1.087 nm
  inner list: updated every 10 steps, buffer 0.015 nm, rlist 0.965 nm

Using full Lennard-Jones parameter combination matrix

Removing pbc first time

Initializing Parallel LINear Constraint Solver

The number of constraints is 1328
There are constraints between atoms in different decomposition domains,
will communicate selected coordinates each lincs iteration

Linking all bonded interactions to atoms
There are 1656 inter charge-group virtual sites,
will an extra communication step for selected coordinates and forces

Intra-simulation communication will occur every 10 steps.
Center of mass motion removal mode is Linear
We have the following groups for center of mass motion removal:
  0:  rest

There are: 6628 Atoms
There are: 1656 VSites
Atom distribution over 16 domains: av 517 stddev 139 min 241 max 617

Constraining the starting coordinates (step 0)

Constraining the coordinates at t0-dt (step 0)
RMS relative constraint deviation after constraining: 7.11e-07
Initial temperature: 200.921 K

Started mdrun on rank 0 Thu Apr 29 10:34:34 2021

           Step           Time
              0        0.00000

   Energies (kJ/mol)
          Angle        LJ (SR)  Disper. corr.   Coulomb (SR)   Coul. recip.
    2.20866e+03    1.33278e+04   -9.70678e+02   -9.60086e+04    5.31105e+02
      Potential    Kinetic En.   Total Energy  Conserved En.    Temperature
   -8.09116e+04    1.14545e+04   -6.94571e+04   -6.94571e+04    2.02821e+02
   -2.23016e+02   -2.99270e+02    2.46286e-06

	<====  A V E R A G E S  ====>

	Statistics over 20001 steps using 201 frames

   Energies (kJ/mol)
          Angle        LJ (SR)  Disper. corr.   Coulomb (SR)   Coul. recip.
    1.48004e+03    1.58439e+04   -9.78915e+02   -1.05811e+05    3.88340e+02
      Potential    Kinetic En.   Total Energy  Conserved En.    Temperature
   -8.90776e+04    1.13318e+04   -7.77458e+04   -6.94791e+04    2.00648e+02
 Pres. DC (bar) Pressure (bar)   Constr. rmsd
   -2.26816e+02   -4.60198e+02    0.00000e+00

          Box-X          Box-Y          Box-Z
    1.25117e+01    2.39481e+00    2.39481e+00

   Total Virial (kJ/mol)
    4.27986e+03    1.04071e+02    9.52953e+00
    1.02309e+02    5.14155e+03    1.23072e+02
    1.04383e+01    1.23614e+02    4.89702e+03

   Pressure (bar)
   -2.24607e+02   -4.15908e+01   -9.22598e+00
   -4.07748e+01   -6.33851e+02   -5.88796e+01
   -9.64248e+00   -5.91301e+01   -5.22137e+02
