Input Parameters:
   integrator                     = md
   tinit                          = 0
   dt                             = 0.001
   nsteps                         = 20000000
   init-step                      = 0
   simulation-part                = 1
   comm-mode                      = Linear
   nstcomm                        = 100
   bd-fric                        = 0
   ld-seed                        = 3562491956
   emtol                          = 10
   emstep                         = 0.01
   niter                          = 20
   fcstep                         = 0
   nstcgsteep                     = 1000
   nbfgscorr                      = 10
   rtpi                           = 0.05
   nstxout                        = 10000
   nstvout                        = 0
   nstfout                        = 0
   nstlog                         = 10000
   nstcalcenergy                  = 100
   nstenergy                      = 10000
   nstxout-compressed             = 0
   compressed-x-precision         = 1000
   cutoff-scheme                  = Verlet
   nstlist                        = 20
   ns-type                        = Grid
   pbc                            = xyz
   periodic-molecules             = FALSE
   verlet-buffer-tolerance        = 0.001
   rlist                          = 0.976
   rlistlong                      = 0.976
   nstcalclr                      = 10
   coulombtype                    = PME
   coulomb-modifier               = Potential-shift
   rcoulomb-switch                = 0
   rcoulomb                       = 0.95
   epsilon-r                      = 1
   epsilon-rf                     = inf
   vdw-type                       = Cut-off
   vdw-modifier                   = Potential-shift
   rvdw-switch                    = 0
   rvdw                           = 0.95
   DispCorr                       = EnerPres
   table-extension                = 1
   fourierspacing                 = 0.15
   fourier-nx                     = 80
   fourier-ny                     = 16
   fourier-nz                     = 16
   pme-order                      = 4
   ewald-rtol                     = 1e-05
   ewald-rtol-lj                  = 0.001
   lj-pme-comb-rule               = Geometric
   ewald-geometry                 = 0
   epsilon-surface                = 0
   implicit-solvent               = No
   gb-algorithm                   = Still
   nstgbradii                     = 1
   rgbradii                       = 1
   gb-epsilon-solvent             = 80
   gb-saltconc                    = 0
   gb-obc-alpha                   = 1
   gb-obc-beta                    = 0.8
   gb-obc-gamma                   = 4.85
   gb-dielectric-offset           = 0.009
   sa-algorithm                   = Ace-approximation
   sa-surface-tension             = 2.05016
   tcoupl                         = Berendsen
   nsttcouple                     = 10
   nh-chain-length                = 0
   print-nose-hoover-chain-variables = FALSE
   pcoupl                         = Berendsen
   pcoupltype                     = Anisotropic
   nstpcouple                     = 10
   tau-p                          = 1
   compressibility (3x3):
      compressibility[    0]={ 1.00000e-06,  0.00000e+00,  0.00000e+00}
      compressibility[    1]={ 0.00000e+00,  1.00000e-06,  0.00000e+00}
      compressibility[    2]={ 0.00000e+00,  0.00000e+00,  1.00000e-06}
   ref-p (3x3):
      ref-p[    0]={ 1.00000e+03,  0.00000e+00,  0.00000e+00}
      ref-p[    1]={ 0.00000e+00,  1.00000e+03,  0.00000e+00}
      ref-p[    2]={ 0.00000e+00,  0.00000e+00,  1.00000e+03}
   refcoord-scaling               = No
   posres-com (3):
      posres-com[0]= 0.00000e+00
      posres-com[1]= 0.00000e+00
      posres-com[2]= 0.00000e+00
   posres-comB (3):
      posres-comB[0]= 0.00000e+00
      posres-comB[1]= 0.00000e+00
      posres-comB[2]= 0.00000e+00
   QMMM                           = FALSE
   QMconstraints                  = 0
   QMMMscheme                     = 0
   MMChargeScaleFactor            = 1
qm-opts:
   ngQM                           = 0
   constraint-algorithm           = Lincs
   continuation                   = FALSE
   Shake-SOR                      = FALSE
   shake-tol                      = 0.0001
   lincs-order                    = 4
   lincs-iter                     = 1
   lincs-warnangle                = 30
   nwall                          = 0
   wall-type                      = 9-3
   wall-r-linpot                  = -1
   wall-atomtype[0]               = -1
   wall-atomtype[1]               = -1
   wall-density[0]                = 0
   wall-density[1]                = 0
   wall-ewald-zfac                = 3
   pull                           = FALSE
   rotation                       = FALSE
   interactiveMD                  = FALSE
   disre                          = No
   disre-weighting                = Conservative
   disre-mixed                    = FALSE
   dr-fc                          = 1000
   dr-tau                         = 0
   nstdisreout                    = 100
   orire-fc                       = 0
   orire-tau                      = 0
   nstorireout                    = 100
   free-energy                    = no
   cos-acceleration               = 0
   deform (3x3):
      deform[    0]={ 0.00000e+00,  0.00000e+00,  0.00000e+00}
      deform[    1]={ 0.00000e+00,  0.00000e+00,  0.00000e+00}
      deform[    2]={ 0.00000e+00,  0.00000e+00,  0.00000e+00}
   simulated-tempering            = FALSE
   E-x:
      n = 0
   E-xt:
      n = 0
   E-y:
      n = 0
   E-yt:
      n = 0
   E-z:
      n = 0
   E-zt:
      n = 0
   swapcoords                     = no
   adress                         = FALSE
   userint1                       = 0
   userint2                       = 0
   userint3                       = 0
   userint4                       = 0
   userreal1                      = 0
   userreal2                      = 0
   userreal3                      = 0
   userreal4                      = 0
grpopts:
   nrdf:       13585
   ref-t:         310
   tau-t:         0.1
annealing:          No
annealing-npoints:           0
   acc:	           0           0           0
   nfreeze:           N           N           N
   energygrp-flags[  0]: 0

Initializing Domain Decomposition on 32 ranks
Dynamic load balancing: auto
Will sort the charge groups at every domain (re)decomposition
Initial maximum inter charge-group distances:
    two-body bonded interactions: 0.196 nm, Exclusion, atoms 6826 6827
  multi-body bonded interactions: 0.196 nm, Angle, atoms 6826 6827
Minimum cell size due to bonded interactions: 0.216 nm
Maximum distance for 5 constraints, at 120 deg. angles, all-trans: 0.218 nm
Estimated maximum distance required for P-LINCS: 0.218 nm
This distance will limit the DD cell size, you can override this with -rcon
Guess for relative PME load: 0.12
Will use 24 particle-particle and 8 PME only ranks
This is a guess, check the performance at the end of the log file
Using 8 separate PME ranks, as guessed by mdrun
Scaling the initial minimum size with 1/0.8 (option -dds) = 1.25
Optimizing the DD grid for 24 cells with a minimum initial size of 0.272 nm
The maximum allowed number of cells is: X 43 Y 8 Z 8
Domain decomposition grid 24 x 1 x 1, separate PME ranks 8
PME domain decomposition: 8 x 1 x 1
Interleaving PP and PME ranks
This rank does only particle-particle work.

Domain decomposition rank 0, coordinates 0 0 0

Using two step summing over 2 groups of on average 12.0 ranks

Using 32 MPI processes
Using 1 OpenMP thread per MPI process

Will do PME sum in reciprocal space for electrostatic interactions.

Will do ordinary reciprocal space Ewald sum.
Using a Gaussian width (1/beta) of 0.304154 nm for Ewald
Cut-off's:   NS: 0.976   Coulomb: 0.95   LJ: 0.95
Long Range LJ corr.: <C6> 2.0976e-04
System total charge: 0.000
Generated table with 988 data points for Ewald.
Tabscale = 500 points/nm
Generated table with 988 data points for LJ6.
Tabscale = 500 points/nm
Generated table with 988 data points for LJ12.
Tabscale = 500 points/nm
Potential shift: LJ r^-12: -1.851e+00 r^-6: -1.360e+00, Ewald -1.000e-05
Initialized non-bonded Ewald correction tables, spacing: 9.09e-04 size: 1046

Using SSE4.1 4x4 non-bonded kernels

Using full Lennard-Jones parameter combination matrix

Removing pbc first time

Non-default thread affinity set probably by the OpenMP library,
disabling internal thread affinity

Initializing Parallel LINear Constraint Solver

The number of constraints is 1328
There are inter charge-group constraints,
will communicate selected coordinates each lincs iteration

Linking all bonded interactions to atoms
There are 1656 inter charge-group virtual sites,
will an extra communication step for selected coordinates and forces

The initial number of communication pulses is: X 2
The initial domain decomposition cell size is: X 0.50 nm

The maximum allowed distance for charge groups involved in interactions is:
                 non-bonded interactions           0.976 nm
(the following are initial values, they could change due to box deformation)
            two-body bonded interactions  (-rdd)   0.976 nm
          multi-body bonded interactions  (-rdd)   0.499 nm
              virtual site constructions  (-rcon)  0.499 nm
  atoms separated by up to 5 constraints  (-rcon)  0.499 nm

When dynamic load balancing gets turned on, these settings will change to:
The maximum number of communication pulses is: X 3
The minimum size for domain decomposition cells is 0.348 nm
The requested allowed shrink of DD cells (option -dds) is: 0.80
The allowed shrink of domain decomposition cells is: X 0.70
The maximum allowed distance for charge groups involved in interactions is:
                 non-bonded interactions           0.976 nm
            two-body bonded interactions  (-rdd)   0.976 nm
          multi-body bonded interactions  (-rdd)   0.348 nm
              virtual site constructions  (-rcon)  0.348 nm
  atoms separated by up to 5 constraints  (-rcon)  0.348 nm

Making 1D domain decomposition grid 24 x 1 x 1, home cell index 0 0 0

Center of mass motion removal mode is Linear
We have the following groups for center of mass motion removal:
  0:  rest

There are: 6628 Atoms
There are: 1656 VSites
Atom distribution over 24 domains: av 345 stddev 60 min 170 max 400

Constraining the starting coordinates (step 0)

Constraining the coordinates at t0-dt (step 0)
RMS relative constraint deviation after constraining: 5.66e-07
Initial temperature: 311.766 K

Started mdrun on rank 0 Tue Jun 22 18:03:32 2021
           Step           Time         Lambda
              0        0.00000        0.00000

   Energies (kJ/mol)
          Angle        LJ (SR)  Disper. corr.   Coulomb (SR)   Coul. recip.
    2.50616e+03    1.65435e+04   -1.06483e+03   -1.06570e+05    4.13315e+02
      Potential    Kinetic En.   Total Energy    Temperature Pres. DC (bar)
   -8.81718e+04    1.77301e+04   -7.04417e+04    3.13940e+02   -2.68322e+02
    1.52284e+03    2.52253e-06

	<====  A V E R A G E S  ====>

	Statistics over 20000001 steps using 200001 frames

   Energies (kJ/mol)
          Angle        LJ (SR)  Disper. corr.   Coulomb (SR)   Coul. recip.
    2.40252e+03    1.47783e+04   -1.05893e+03   -1.01608e+05    4.62115e+02
      Potential    Kinetic En.   Total Energy    Temperature Pres. DC (bar)
   -8.50238e+04    1.75076e+04   -6.75162e+04    3.10002e+02   -2.65359e+02
 Pressure (bar)   Constr. rmsd
    1.00067e+03    0.00000e+00

          Box-X          Box-Y          Box-Z
    1.19562e+01    2.35615e+00    2.35494e+00

   Total Virial (kJ/mol)
    3.84516e+03    2.26845e+00   -3.53016e+00
    2.04018e+00    3.83413e+03    1.58024e+02
   -3.19327e+00    1.58252e+02    3.83175e+03

   Pressure (bar)
    1.00121e+03   -4.69552e-01    1.11359e-01
   -3.55215e-01    1.00003e+03   -7.39205e+01
   -5.72815e-02   -7.40345e+01    1.00076e+03
