Input Parameters:
   integrator                     = md
   tinit                          = 0
   dt                             = 0.001
   nsteps                         = 20000
   init-step                      = 0
   simulation-part                = 1
   comm-mode                      = Linear
   nstcomm                        = 100
   bd-fric                        = 0
   ld-seed                        = 1854353061
   emtol                          = 10
   emstep                         = 0.01
   niter                          = 20
   fcstep                         = 0
   nstcgsteep                     = 1000
   nbfgscorr                      = 10
   rtpi                           = 0.05
   nstxout                        = 10000
   nstvout                        = 0
   nstfout                        = 0
   nstlog                         = 10000
   nstcalcenergy                  = 100
   nstenergy                      = 10000
   nstxout-compressed             = 0
   compressed-x-precision         = 1000
   cutoff-scheme                  = Verlet
   nstlist                        = 25
   ns-type                        = Grid
   pbc                            = xyz
   periodic-molecules             = FALSE
   verlet-buffer-tolerance        = 0.001
   rlist                          = 0.982
   rlistlong                      = 0.982
   nstcalclr                      = 10
   coulombtype                    = PME
   coulomb-modifier               = Potential-shift
   rcoulomb-switch                = 0
   rcoulomb                       = 0.95
   epsilon-r                      = 1
   epsilon-rf                     = inf
   vdw-type                       = Cut-off
   vdw-modifier                   = Potential-shift
   rvdw-switch                    = 0
   rvdw                           = 0.95
   DispCorr                       = EnerPres
   table-extension                = 1
   fourierspacing                 = 0.15
   fourier-nx                     = 84
   fourier-ny                     = 16
   fourier-nz                     = 16
   pme-order                      = 4
   ewald-rtol                     = 1e-05
   ewald-rtol-lj                  = 0.001
   lj-pme-comb-rule               = Geometric
   ewald-geometry                 = 0
   epsilon-surface                = 0
   implicit-solvent               = No
   gb-algorithm                   = Still
   nstgbradii                     = 1
   rgbradii                       = 1
   gb-epsilon-solvent             = 80
   gb-saltconc                    = 0
   gb-obc-alpha                   = 1
   gb-obc-beta                    = 0.8
   gb-obc-gamma                   = 4.85
   gb-dielectric-offset           = 0.009
   sa-algorithm                   = Ace-approximation
   sa-surface-tension             = 2.05016
   tcoupl                         = Berendsen
   nsttcouple                     = 10
   nh-chain-length                = 0
   print-nose-hoover-chain-variables = FALSE
   pcoupl                         = Berendsen
   pcoupltype                     = Anisotropic
   nstpcouple                     = 10
   tau-p                          = 1
   compressibility (3x3):
      compressibility[    0]={ 1.00000e-06,  0.00000e+00,  0.00000e+00}
      compressibility[    1]={ 0.00000e+00,  1.00000e-06,  0.00000e+00}
      compressibility[    2]={ 0.00000e+00,  0.00000e+00,  1.00000e-06}
   ref-p (3x3):
      ref-p[    0]={ 1.00000e+03,  0.00000e+00,  0.00000e+00}
      ref-p[    1]={ 0.00000e+00,  1.00000e+03,  0.00000e+00}
      ref-p[    2]={ 0.00000e+00,  0.00000e+00,  1.00000e+03}
   refcoord-scaling               = No
   posres-com (3):
      posres-com[0]= 0.00000e+00
      posres-com[1]= 0.00000e+00
      posres-com[2]= 0.00000e+00
   posres-comB (3):
      posres-comB[0]= 0.00000e+00
      posres-comB[1]= 0.00000e+00
      posres-comB[2]= 0.00000e+00
   QMMM                           = FALSE
   QMconstraints                  = 0
   QMMMscheme                     = 0
   MMChargeScaleFactor            = 1
qm-opts:
   ngQM                           = 0
   constraint-algorithm           = Lincs
   continuation                   = FALSE
   Shake-SOR                      = FALSE
   shake-tol                      = 0.0001
   lincs-order                    = 4
   lincs-iter                     = 1
   lincs-warnangle                = 30
   nwall                          = 0
   wall-type                      = 9-3
   wall-r-linpot                  = -1
   wall-atomtype[0]               = -1
   wall-atomtype[1]               = -1
   wall-density[0]                = 0
   wall-density[1]                = 0
   wall-ewald-zfac                = 3
   pull                           = FALSE
   rotation                       = FALSE
   interactiveMD                  = FALSE
   disre                          = No
   disre-weighting                = Conservative
   disre-mixed                    = FALSE
   dr-fc                          = 1000
   dr-tau                         = 0
   nstdisreout                    = 100
   orire-fc                       = 0
   orire-tau                      = 0
   nstorireout                    = 100
   free-energy                    = no
   cos-acceleration               = 0
   deform (3x3):
      deform[    0]={ 0.00000e+00,  0.00000e+00,  0.00000e+00}
      deform[    1]={ 0.00000e+00,  0.00000e+00,  0.00000e+00}
      deform[    2]={ 0.00000e+00,  0.00000e+00,  0.00000e+00}
   simulated-tempering            = FALSE
   E-x:
      n = 0
   E-xt:
      n = 0
   E-y:
      n = 0
   E-yt:
      n = 0
   E-z:
      n = 0
   E-zt:
      n = 0
   swapcoords                     = no
   adress                         = FALSE
   userint1                       = 0
   userint2                       = 0
   userint3                       = 0
   userint4                       = 0
   userreal1                      = 0
   userreal2                      = 0
   userreal3                      = 0
   userreal4                      = 0
grpopts:
   nrdf:       13585
   ref-t:         260
   tau-t:         0.1
annealing:      Single
annealing-npoints:           6
annealing-time [0]:	         0.0         4.0         8.0        12.0        16.0        20.0
annealing-temp [0]:	       260.0       262.0       264.0       266.0       268.0       270.0
   acc:	           0           0           0
   nfreeze:           N           N           N
   energygrp-flags[  0]: 0

Initializing Domain Decomposition on 16 ranks
Dynamic load balancing: auto
Will sort the charge groups at every domain (re)decomposition
Initial maximum inter charge-group distances:
    two-body bonded interactions: 0.192 nm, Exclusion, atoms 6867 6869
  multi-body bonded interactions: 0.192 nm, Angle, atoms 6867 6869
Minimum cell size due to bonded interactions: 0.211 nm
Maximum distance for 5 constraints, at 120 deg. angles, all-trans: 0.218 nm
Estimated maximum distance required for P-LINCS: 0.218 nm
This distance will limit the DD cell size, you can override this with -rcon
Using 0 separate PME ranks, as there are too few total
 ranks for efficient splitting
Scaling the initial minimum size with 1/0.8 (option -dds) = 1.25
Optimizing the DD grid for 16 cells with a minimum initial size of 0.272 nm
The maximum allowed number of cells is: X 44 Y 8 Z 8
Domain decomposition grid 16 x 1 x 1, separate PME ranks 0
PME domain decomposition: 16 x 1 x 1
Domain decomposition rank 0, coordinates 0 0 0

Using 16 MPI processes
Using 1 OpenMP thread per MPI process

Will do PME sum in reciprocal space for electrostatic interactions.

Will do ordinary reciprocal space Ewald sum.
Using a Gaussian width (1/beta) of 0.304154 nm for Ewald
Cut-off's:   NS: 0.982   Coulomb: 0.95   LJ: 0.95
Long Range LJ corr.: <C6> 2.0976e-04
System total charge: 0.000
Generated table with 991 data points for Ewald.
Tabscale = 500 points/nm
Generated table with 991 data points for LJ6.
Tabscale = 500 points/nm
Generated table with 991 data points for LJ12.
Tabscale = 500 points/nm
Potential shift: LJ r^-12: -1.851e+00 r^-6: -1.360e+00, Ewald -1.000e-05
Initialized non-bonded Ewald correction tables, spacing: 9.09e-04 size: 1046

Using SSE4.1 4x4 non-bonded kernels

Using full Lennard-Jones parameter combination matrix

Removing pbc first time

Non-default thread affinity set probably by the OpenMP library,
disabling internal thread affinity

Initializing Parallel LINear Constraint Solver

The number of constraints is 1328
There are inter charge-group constraints,
will communicate selected coordinates each lincs iteration

Linking all bonded interactions to atoms
There are 1656 inter charge-group virtual sites,
will an extra communication step for selected coordinates and forces

The initial number of communication pulses is: X 2
The initial domain decomposition cell size is: X 0.75 nm

The maximum allowed distance for charge groups involved in interactions is:
                 non-bonded interactions           0.982 nm
(the following are initial values, they could change due to box deformation)
            two-body bonded interactions  (-rdd)   0.982 nm
          multi-body bonded interactions  (-rdd)   0.751 nm
              virtual site constructions  (-rcon)  0.751 nm
  atoms separated by up to 5 constraints  (-rcon)  0.751 nm

When dynamic load balancing gets turned on, these settings will change to:
The maximum number of communication pulses is: X 2
The minimum size for domain decomposition cells is 0.491 nm
The requested allowed shrink of DD cells (option -dds) is: 0.80
The allowed shrink of domain decomposition cells is: X 0.65
The maximum allowed distance for charge groups involved in interactions is:
                 non-bonded interactions           0.982 nm
            two-body bonded interactions  (-rdd)   0.982 nm
          multi-body bonded interactions  (-rdd)   0.491 nm
              virtual site constructions  (-rcon)  0.491 nm
  atoms separated by up to 5 constraints  (-rcon)  0.491 nm

Making 1D domain decomposition grid 16 x 1 x 1, home cell index 0 0 0

Center of mass motion removal mode is Linear
We have the following groups for center of mass motion removal:
  0:  rest

There are: 6628 Atoms
There are: 1656 VSites
Atom distribution over 16 domains: av 517 stddev 99 min 246 max 586

Constraining the starting coordinates (step 0)

Constraining the coordinates at t0-dt (step 0)
RMS relative constraint deviation after constraining: 7.81e-07
Initial temperature: 263.195 K

Started mdrun on rank 0 Wed Jun 16 10:55:18 2021
           Step           Time         Lambda
              0        0.00000        0.00000

   Energies (kJ/mol)
          Angle        LJ (SR)  Disper. corr.   Coulomb (SR)   Coul. recip.
    2.13905e+03    1.71112e+04   -1.05846e+03   -1.10492e+05    3.41948e+02
      Potential    Kinetic En.   Total Energy    Temperature Pres. DC (bar)
   -9.19583e+04    1.49532e+04   -7.70051e+04    2.64770e+02   -2.65124e+02
    4.35727e+02    2.50735e-06

	<====  A V E R A G E S  ====>

	Statistics over 20001 steps using 201 frames

Current ref_t for group System:    270.0
   Energies (kJ/mol)
          Angle        LJ (SR)  Disper. corr.   Coulomb (SR)   Coul. recip.
    2.13033e+03    1.70487e+04   -1.06410e+03   -1.10103e+05    3.53629e+02
      Potential    Kinetic En.   Total Energy    Temperature Pres. DC (bar)
   -9.16340e+04    1.49598e+04   -7.66742e+04    2.64888e+02   -2.67952e+02
 Pressure (bar)   Constr. rmsd
    5.33490e+02    0.00000e+00

          Box-X          Box-Y          Box-Z
    1.19933e+01    2.34776e+00    2.34460e+00

   Total Virial (kJ/mol)
    4.07233e+03   -6.74388e+00    7.44497e+01
   -6.63030e+00    3.76365e+03    1.11339e+02
    7.52602e+01    1.11531e+02    3.94391e+03

   Pressure (bar)
    4.63559e+02    2.52306e+00   -3.95215e+01
    2.46655e+00    6.14852e+02   -4.42027e+01
   -3.99301e+01   -4.43000e+01    5.22059e+02
