Input Parameters:
   integrator                     = md
   tinit                          = 0
   dt                             = 0.001
   nsteps                         = 1000000
   init-step                      = 0
   simulation-part                = 1
   comm-mode                      = Linear
   nstcomm                        = 100
   bd-fric                        = 0
   ld-seed                        = 1544933092
   emtol                          = 10
   emstep                         = 0.01
   niter                          = 20
   fcstep                         = 0
   nstcgsteep                     = 1000
   nbfgscorr                      = 10
   rtpi                           = 0.05
   nstxout                        = 10000
   nstvout                        = 0
   nstfout                        = 0
   nstlog                         = 10000
   nstcalcenergy                  = 100
   nstenergy                      = 10000
   nstxout-compressed             = 0
   compressed-x-precision         = 1000
   cutoff-scheme                  = Verlet
   nstlist                        = 10
   ns-type                        = Grid
   pbc                            = xyz
   periodic-molecules             = false
   verlet-buffer-tolerance        = 0.001
   rlist                          = 0.708
   coulombtype                    = PME
   coulomb-modifier               = Potential-shift
   rcoulomb-switch                = 0
   rcoulomb                       = 0.7
   epsilon-r                      = 1
   epsilon-rf                     = inf
   vdw-type                       = Cut-off
   vdw-modifier                   = Potential-shift
   rvdw-switch                    = 0
   rvdw                           = 0.7
   DispCorr                       = EnerPres
   table-extension                = 1
   fourierspacing                 = 0.15
   fourier-nx                     = 96
   fourier-ny                     = 20
   fourier-nz                     = 20
   pme-order                      = 4
   ewald-rtol                     = 1e-05
   ewald-rtol-lj                  = 0.001
   lj-pme-comb-rule               = Geometric
   ewald-geometry                 = 0
   epsilon-surface                = 0
   tcoupl                         = Berendsen
   nsttcouple                     = 10
   nh-chain-length                = 0
   print-nose-hoover-chain-variables = false
   pcoupl                         = Berendsen
   pcoupltype                     = Isotropic
   nstpcouple                     = 10
   tau-p                          = 1
   compressibility (3x3):
      compressibility[    0]={ 1.00000e-06,  0.00000e+00,  0.00000e+00}
      compressibility[    1]={ 0.00000e+00,  1.00000e-06,  0.00000e+00}
      compressibility[    2]={ 0.00000e+00,  0.00000e+00,  1.00000e-06}
   ref-p (3x3):
      ref-p[    0]={ 5.00000e+01,  0.00000e+00,  0.00000e+00}
      ref-p[    1]={ 0.00000e+00,  5.00000e+01,  0.00000e+00}
      ref-p[    2]={ 0.00000e+00,  0.00000e+00,  5.00000e+01}
   refcoord-scaling               = No
   posres-com (3):
      posres-com[0]= 0.00000e+00
      posres-com[1]= 0.00000e+00
      posres-com[2]= 0.00000e+00
   posres-comB (3):
      posres-comB[0]= 0.00000e+00
      posres-comB[1]= 0.00000e+00
      posres-comB[2]= 0.00000e+00
   QMMM                           = false
   QMconstraints                  = 0
   QMMMscheme                     = 0
   MMChargeScaleFactor            = 1
qm-opts:
   ngQM                           = 0
   constraint-algorithm           = Lincs
   continuation                   = false
   Shake-SOR                      = false
   shake-tol                      = 0.0001
   lincs-order                    = 4
   lincs-iter                     = 1
   lincs-warnangle                = 30
   nwall                          = 0
   wall-type                      = 9-3
   wall-r-linpot                  = -1
   wall-atomtype[0]               = -1
   wall-atomtype[1]               = -1
   wall-density[0]                = 0
   wall-density[1]                = 0
   wall-ewald-zfac                = 3
   pull                           = false
   awh                            = false
   rotation                       = false
   interactiveMD                  = false
   disre                          = No
   disre-weighting                = Conservative
   disre-mixed                    = false
   dr-fc                          = 1000
   dr-tau                         = 0
   nstdisreout                    = 100
   orire-fc                       = 0
   orire-tau                      = 0
   nstorireout                    = 100
   free-energy                    = no
   cos-acceleration               = 0
   deform (3x3):
      deform[    0]={ 0.00000e+00,  0.00000e+00,  0.00000e+00}
      deform[    1]={ 0.00000e+00,  0.00000e+00,  0.00000e+00}
      deform[    2]={ 0.00000e+00,  0.00000e+00,  0.00000e+00}
   simulated-tempering            = false
   swapcoords                     = no
   userint1                       = 0
   userint2                       = 0
   userint3                       = 0
   userint4                       = 0
   userreal1                      = 0
   userreal2                      = 0
   userreal3                      = 0
   userreal4                      = 0
   applied-forces:
     electric-field:
       x:
         E0                       = 0
         omega                    = 0
         t0                       = 0
         sigma                    = 0
       y:
         E0                       = 0
         omega                    = 0
         t0                       = 0
         sigma                    = 0
       z:
         E0                       = 0
         omega                    = 0
         t0                       = 0
         sigma                    = 0
grpopts:
   nrdf:       14913
   ref-t:         298
   tau-t:         0.1
annealing:          No
annealing-npoints:           0
   acc:	           0           0           0
   nfreeze:           N           N           N
   energygrp-flags[  0]: 0

Changing nstlist from 10 to 40, rlist from 0.708 to 0.792

Initializing Domain Decomposition on 32 ranks
Dynamic load balancing: locked
Using update groups, nr 3316, average size 2.5 atoms, max. radius 0.078 nm
Minimum cell size due to atom displacement: 0.396 nm
Initial maximum distances in bonded interactions:
    two-body bonded interactions: 0.179 nm, Exclusion, atoms 6713 6714
  multi-body bonded interactions: 0.179 nm, Angle, atoms 6713 6714
Minimum cell size due to bonded interactions: 0.197 nm
Guess for relative PME load: 0.27
Will use 20 particle-particle and 12 PME only ranks
This is a guess, check the performance at the end of the log file
Using 12 separate PME ranks, as guessed by mdrun
Scaling the initial minimum size with 1/0.8 (option -dds) = 1.25
Optimizing the DD grid for 20 cells with a minimum initial size of 0.495 nm
The maximum allowed number of cells is: X 25 Y 4 Z 4
Domain decomposition grid 20 x 1 x 1, separate PME ranks 12
PME domain decomposition: 12 x 1 x 1
Interleaving PP and PME ranks
This rank does only particle-particle work.
Domain decomposition rank 0, coordinates 0 0 0

The initial number of communication pulses is: X 2
The initial domain decomposition cell size is: X 0.64 nm

The maximum allowed distance for atom groups involved in interactions is:
                 non-bonded interactions           0.948 nm
(the following are initial values, they could change due to box deformation)
            two-body bonded interactions  (-rdd)   0.948 nm
          multi-body bonded interactions  (-rdd)   0.640 nm
              virtual site constructions  (-rcon)  0.640 nm

When dynamic load balancing gets turned on, these settings will change to:
The maximum number of communication pulses is: X 2
The minimum size for domain decomposition cells is 0.474 nm
The requested allowed shrink of DD cells (option -dds) is: 0.80
The allowed shrink of domain decomposition cells is: X 0.74
The maximum allowed distance for atom groups involved in interactions is:
                 non-bonded interactions           0.948 nm
            two-body bonded interactions  (-rdd)   0.948 nm
          multi-body bonded interactions  (-rdd)   0.474 nm
              virtual site constructions  (-rcon)  0.474 nm
Using two step summing over 2 groups of on average 10.0 ranks

Using 32 MPI processes
Using 1 OpenMP thread per MPI process

Non-default thread affinity set probably by the OpenMP library,
disabling internal thread affinity
System total charge: 0.000
Will do PME sum in reciprocal space for electrostatic interactions.

Using a Gaussian width (1/beta) of 0.224114 nm for Ewald
Potential shift: LJ r^-12: -7.225e+01 r^-6: -8.500e+00, Ewald -1.429e-05
Initialized non-bonded Ewald correction tables, spacing: 7.81e-04 size: 898

Long Range LJ corr.: <C6> 2.0976e-04
Generated table with 896 data points for Ewald.
Tabscale = 500 points/nm
Generated table with 896 data points for LJ6.
Tabscale = 500 points/nm
Generated table with 896 data points for LJ12.
Tabscale = 500 points/nm

Using SIMD 4x4 nonbonded short-range kernels

Using a dual 4x4 pair-list setup updated with dynamic pruning:
  outer list: updated every 40 steps, buffer 0.092 nm, rlist 0.792 nm
  inner list: updated every  6 steps, buffer 0.002 nm, rlist 0.702 nm
At tolerance 0.001 kJ/mol/ps per atom, equivalent classical 1x1 list would be:
  outer list: updated every 40 steps, buffer 0.153 nm, rlist 0.853 nm
  inner list: updated every  6 steps, buffer 0.011 nm, rlist 0.711 nm

Using full Lennard-Jones parameter combination matrix

Removing pbc first time

Linking all bonded interactions to atoms
There are 1656 inter charge-group virtual sites,
will an extra communication step for selected coordinates and forces

Intra-simulation communication will occur every 10 steps.
Center of mass motion removal mode is Linear
We have the following groups for center of mass motion removal:
  0:  rest

There are: 6628 Atoms
There are: 1656 VSites
Atom distribution over 20 domains: av 414 stddev 127 min 134 max 516

Constraining the starting coordinates (step 0)

Constraining the coordinates at t0-dt (step 0)
RMS relative constraint deviation after constraining: 0.00e+00
Initial temperature: 299.394 K

Started mdrun on rank 0 Wed Apr 21 10:47:38 2021

           Step           Time
              0        0.00000

   Energies (kJ/mol)
           Bond          Angle        LJ (SR)  Disper. corr.   Coulomb (SR)
    1.00939e-05    2.38991e+02    1.63770e+04   -2.28061e+03   -1.11331e+05
    1.64636e+03   -9.53497e+04    1.85616e+04   -7.67881e+04   -7.67878e+04
    Temperature Pres. DC (bar) Pressure (bar)
    2.99397e+02   -4.94496e+02   -1.65285e+03

	<====  A V E R A G E S  ====>

	Statistics over 1000001 steps using 10001 frames

   Energies (kJ/mol)
           Bond          Angle        LJ (SR)  Disper. corr.   Coulomb (SR)
    1.67966e+03    2.29453e+03    1.43290e+04   -2.39150e+03   -9.65185e+04
   Coul. recip.      Potential    Kinetic En.   Total Energy  Conserved En.
    2.12212e+03   -7.84846e+04    1.84725e+04   -6.00121e+04   -7.73812e+04
    Temperature Pres. DC (bar) Pressure (bar)
    2.97959e+02   -5.43695e+02   -9.04808e+00

          Box-X          Box-Y          Box-Z
    1.26002e+01    2.41176e+00    2.41176e+00

   Total Virial (kJ/mol)
    5.83565e+03    8.80340e-01    7.18703e+00
    7.46124e-01    6.37563e+03   -1.55983e+01
    7.15532e+00   -1.55275e+01    6.32816e+03

   Pressure (bar)
    1.56077e+02    1.16882e+00   -5.07578e+00
    1.22919e+00   -1.00443e+02    5.35612e+00
   -5.06453e+00    5.32362e+00   -8.27783e+01
